#
# CIF written by cell_write_cif: Keith Refson, Apr 2010
#
data_benzene-mol
_audit_creation_date '13:09:15 (GMT-0.0) 5th November 2016'
_audit_creation_method 'Generated by CASTEP 16.100'
 
_symmetry_Int_Tables_number         191
_symmetry_space_group_name_Hall    '-P 6 2'
loop_
_symmetry_equiv_pos_as_xyz
 x,y,z
 -x+1/1,-y,-z
 x-y,x,z
 -x+y+1/1,-x+1/1,-z
 -y+1/1,x-y,z
 y+1/1,-x+y+1/1,-z
 -x+1/1,-y,z
 x,y,-z
 -x+y+1/1,-x+1/1,z
 x-y,x,-z
 y+1/1,-x+y+1/1,z
 -y+1/1,x-y,-z
 -y+1/1,-x+1/1,-z
 y+1/1,x,z
 -x+1/1,-x+y+1/1,-z
 x,x-y,z
 -x+y+1/1,y,-z
 x-y,-y,z
 y+1/1,x,-z
 -y+1/1,-x+1/1,z
 x,x-y,-z
 -x+1/1,-x+y+1/1,z
 x-y,-y,-z
 -x+y+1/1,y,z
 
_cell_length_a            7.999999999999999
_cell_length_b            7.999999999999999
_cell_length_c            4.000000000000000
_cell_angle_alpha        90.000000000000000
_cell_angle_beta         90.000000000000000
_cell_angle_gamma       119.999999999999986
 
loop_
_atom_site_label
_atom_site_fract_x
_atom_site_fract_y
_atom_site_fract_z
_atom_site_U_iso_or_equiv
_atom_site_occupancy
H1     0.178036734588916  0.356073515411084  0.000000000000000 0.0100 1.0000
C1     0.098884138010110  0.197768361989890  0.000000000000000 0.0100 1.0000
